LAMMPS (7 Aug 2019)
#LAMMPS simulation of MSD calculation for NS Glass

units           lj
dimension      	2
processors      * * *
boundary        p p p
atom_style	atomic

# read data

read_data	E_6_10000000_G_L62.dat
  orthogonal box = (0 0 -5) to (20.4124 20.4124 5)
  reading atoms ...
  500 atoms
  reading velocities ...
  500 velocities

variable	dt equal 0.003

#inter-atomic potential#######################

include		pot.mod
#LJ Potential for binary glass
pair_style	lj/cut 2.5
pair_coeff	1 1 1.0 1.0 2.5		#e_AA=1.0 , sigma_AA=1.0, rc_AA=2.5*e_AA=2.5
pair_coeff	1 2 1.5 0.8 2.0		#e_AB=1.5 , sigma_AB=0.8, rc_AB=2.5*e_AB=2.0
pair_coeff	2 2 0.5 0.88 2.2	#e_AB=0.5 , sigma_BB=0.88, rc_BB=2.5*e_BB=2.2

neighbor        2.0 bin
neigh_modify    every 1 check yes

timestep        0.003
change_box	all triclinic
  triclinic box = (0 0 -5) to (20.4124 20.4124 5) with tilt (0 0 0)
reset_timestep  0

###############################################

# Compute settings ----------------------------

compute dispatom all displace/atom

# Output settings ----------------------------

# Display thermo

thermo 			1000
thermo_style		custom step temp ke pe press density

fix      	4 all box/relax tri 0.0
min_style	cg
min_modify	line quadratic
minimize	1.0e-10 1.0e-10 100000 100000
  update every 1 steps, delay 0 steps, check yes
Step Temp KinEng PotEng Press Density
0    1.8610562    1.8573341   -2.0264186    22.830604          1.2
Loop time of 0.0735228 on 4 procs for 740 steps with 500 atoms

Minimization stats:
  Stopping criterion = linesearch alpha is zero
  Energy initial, next-to-last, final =
  Force two-norm initial, final = 12229.7 694.321
  Force max component initial, final = 8816.57 399.922
  Final line search alpha, max atom move = 7.63088e-12 3.05176e-09
  Iterations, force evaluations = 740 819

unfix           4

fix      	3 all npt temp 0.01 0.001 0.15 tri 0.0 0.0 1.5
run           	1000						#Try different values
Step Temp KinEng PotEng Press Density
740    1.8610562    1.8573341   -3.0764648    2.8060022    1.0455297
Loop time of 0.0659783 on 4 procs for 1000 steps with 500 atoms

unfix         	3

velocity        all scale 0.25
reset_timestep	0
thermo 			1000
fix     		1 all nvt temp 0.25 0.25 0.15
dump			atom_disp all custom/gz 1000 atom_disp1.atom.gz id type x y z c_dispatom[*]

run 			100000
Step Temp KinEng PotEng Press Density
0         0.25       0.2495   -3.7772952   0.28179191    1.1366346
Averages over the last 51 of 101 rows, steps 50000 to 100000:
Temp KinEng PotEng Press Density
0.25126 0.250757 -3.6286 1.40969 1.13663
Loop time of 6.01906 on 4 procs for 100000 steps with 500 atoms

dump			Last_atom_disp all custom 1 atom_disp_final.atom id type x y z c_dispatom[*]
run			0
Step Temp KinEng PotEng Press Density
100000   0.25271271   0.25220728   -3.6443051    1.1798153    1.1366346
Loop time of 1.46031e-05 on 4 procs for 0 steps with 500 atoms
